/*--------------------------------*- C++ -*----------------------------------*\
| =========                 |                                                 |
| \\      /  F ield         | OpenFOAM: The Open Source CFD Toolbox           |
|  \\    /   O peration     | Version:  2.2.0                                 |
|   \\  /    A nd           | Web:      www.OpenFOAM.org                      |
|    \\/     M anipulation  |                                                 |
\*---------------------------------------------------------------------------*/
FoamFile
{
    version     2.0;
    format      ascii;
    class       volScalarField;
    location    "0";
    object      kappat;
}
// * * * * * * * * * * * * * * * * * * * * * * * * * * * * * * * * * * * * * //

dimensions      [0 2 -1 0 0 0 0];

internalField   uniform 0;

//kinematic turbulent thermal conductivity

boundaryField
{
    east_face
    {
        type            zeroGradient;
    }
    north_face
    {
        type            zeroGradient;
    }
    south_face
    {
        type            zeroGradient;
    }
    west_face
    {
        type            zeroGradient;
    }
    minZ
    {
        type            kappatJayatillekeWallFunction;
        Prt             0.85;
        value           uniform 0;
    }
    maxZ
    {
        type            zeroGradient;
    }
}


// ************************************************************************* //
