/*--------------------------------*- C++ -*----------------------------------*\
  =========                 |
  \\      /  F ield         | OpenFOAM: The Open Source CFD Toolbox
   \\    /   O peration     | Website:  https://openfoam.org
    \\  /    A nd           | Version:  8
     \\/     M anipulation  |
\*---------------------------------------------------------------------------*/
FoamFile
{
    version     2.0;
    format      ascii;
    class       dictionary;
    location    "constant";
    object      momentumTransport;
}
// * * * * * * * * * * * * * * * * * * * * * * * * * * * * * * * * * * * * * //

simulationType RAS;

RAS
{
    //model           kEpsilon;
    model           RNGkEpsilon;

    turbulence      on;

    printCoeffs     on;
	
	kEpsilonCoeffs
	{
	    Cmu              0.09;
	    C1               1.44;
	    C2               1.92;
	    alphak           1.0;
	    alphaEps         0.76923;
	}

	RNGkEpsilonCoeffs
    {
         Cmu         0.085;
         C1          0.92;
         C2          1.68;
         sigmak      0.7179;
         sigmaEps    0.7179;
         eta0        4.38;
         beta        0.012;
    }

}


// ************************************************************************* //
