/*--------------------------------*- C++ -*----------------------------------*\
| =========                 |                                                 |
| \\      /  F ield         | OpenFOAM: The Open Source CFD Toolbox           |
|  \\    /   O peration     | Version:  2.2.0                                   |
|   \\  /    A nd           | Web:      http://www.OpenFOAM.org               |
|    \\/     M anipulation  |                                                 |
\*---------------------------------------------------------------------------*/
FoamFile
{
    version     2.0;
    format      ascii;
    class       dictionary;
    object      RASProperties;
}
// * * * * * * * * * * * * * * * * * * * * * * * * * * * * * * * * * * * * * //

//RASModel            kEpsilon;
RASModel            RNGkEpsilon;

turbulence          on;

printCoeffs         on;

kEpsilonCoeffs
{
    Cmu              0.09;
    C1               1.44;
    C2               1.92;
    alphak           1.0;
    alphaEps         0.76923;
}

RNGkEpsilonCoeffs
{
    Cmu         0.085;
    C1          0.92;
    C2          1.68;
    sigmak      0.7179;
    sigmaEps    0.7179;
    eta0        4.38;
    beta        0.012;
}
// ************************************************************************* //
