/*--------------------------------*- C++ -*----------------------------------*\
| =========                 |                                                 |
| \\      /  F ield         | OpenFOAM: The Open Source CFD Toolbox           |
|  \\    /   O peration     | Version:  2.2.2                                 |
|   \\  /    A nd           | Web:      www.OpenFOAM.org                      |
|    \\/     M anipulation  |                                                 |
\*---------------------------------------------------------------------------*/
FoamFile
{
    version     2.0;
    format      ascii;
    class       volScalarField;
    location    "0";
    object      nut;
}
// * * * * * * * * * * * * * * * * * * * * * * * * * * * * * * * * * * * * * //

dimensions      [0 2 -1 0 0 0 0];

internalField   uniform 0;

boundaryField
{
    north_face
    {
        type            calculated;
        value           uniform 0;
    }
    west_face
    {
        type            calculated;
        value           uniform 0;
    }
    east_face
    {
        type            calculated;
        value           uniform 0;
    }
    south_face
    {
        type            calculated;
        value           uniform 0;
    }
    minZ
    {
        type            nutkAtmRoughWallFunction;
        z0              uniform $z0$;
        Cmu             0.09;  // original, this is for regular k epsilon model
        //Cmu             0.085;  // for RNG k epsilon model
        //kappa           0.41;   // uncomment this out for RNG k epsilon model, leave commented for k epsilon model
        //E               9.8;    // uncomment this out for RNG k epsilon model, leave commented for k epsilon model
        value           uniform 0.1;    
    }
    maxZ
    {
        type            calculated;
        value           uniform 0;
    }
}
// ************************************************************************* //
