/*--------------------------------*- C++ -*----------------------------------*\
  =========                 |
  \\      /  F ield         | OpenFOAM: The Open Source CFD Toolbox
   \\    /   O peration     | Website:  https://openfoam.org
    \\  /    A nd           | Version:  8
     \\/     M anipulation  |
\*---------------------------------------------------------------------------*/
FoamFile
{
    version     2.0;
    format      ascii;
    class       volScalarField;
    location    "0";
    object      nut;
}
// * * * * * * * * * * * * * * * * * * * * * * * * * * * * * * * * * * * * * //

dimensions      [0 2 -1 0 0 0 0];

internalField   uniform 0;

boundaryField
{
    north_face
    {
        type            calculated;
        value           uniform 0;
    }
    west_face
    {
        type            calculated;
        value           uniform 0;
    }
    east_face
    {
        type            calculated;
        value           uniform 0;
    }
    south_face
    {
        type            calculated;
        value           uniform 0;
    }
    minZ
    {
        type            nutkAtmRoughWallFunction;
        z0              uniform $z0$;
        value           uniform 0.1;    
    }
    maxZ
    {
        type            calculated;
        value           uniform 0;
    }
}


// ************************************************************************* //
